<?xml version="1.0" encoding="UTF-8"?>

<!-- generated on 2026-04-13T20:40:54.350758+05:30 by Eclipse SUMO sumo 1.26.0
-->

<sumoConfiguration xmlns:xsi="http://www.w3.org/2001/XMLSchema-instance" xsi:noNamespaceSchemaLocation="http://sumo.dlr.de/xsd/sumoConfiguration.xsd">

    <input>
        <net-file value="trafficSim.net.xml"/>
        <route-files value="trafficSim.rou.xml"/>
        <additional-files value="trafficSim.add.xml"/>
    </input>

</sumoConfiguration>
