<?xml version="1.0" encoding="UTF-8"?>

<!-- generated on 2026-04-13T20:29:01.721561+05:30 by Eclipse SUMO netedit 1.26.0
-->

<additional xmlns:xsi="http://www.w3.org/2001/XMLSchema-instance" xsi:noNamespaceSchemaLocation="http://sumo.dlr.de/xsd/additional_file.xsd">
    <!-- Detectors -->
    <laneAreaDetector id="Node1_2_EB_0" lane="Node1_2_EB_0" pos="259.39" length="10.00" period="300.00" file="e2_0.xml"/>
    <laneAreaDetector id="Node1_2_EB_1" lane="Node1_2_EB_1" pos="259.27" length="10.00" period="300.00" file="e2_1.xml"/>
    <laneAreaDetector id="Node1_2_EB_2" lane="Node1_2_EB_2" pos="259.27" length="10.00" period="300.00" file="e2_2.xml"/>
    <laneAreaDetector id="Node2_7_SB_0" lane="Node2_7_SB_0" pos="121.49" length="10.00" period="300.00" file="e2_3.xml"/>
    <laneAreaDetector id="Node2_7_SB_1" lane="Node2_7_SB_1" pos="121.74" length="10.00" period="300.00" file="e2_4.xml"/>
    <laneAreaDetector id="Node2_7_SB_2" lane="Node2_7_SB_2" pos="122.12" length="10.00" period="300.00" file="e2_5.xml"/>
</additional>
