<routes xmlns:xsi="http://www.w3.org/2001/XMLSchema-instance"
xsi:noNamespaceSchemaLocation="http://sumo.dlr.de/xsd/routes_file.xsd">

    <!-- 🔹 Vehicle Types -->
    <vType id="car" accel="2.6" decel="4.5" maxSpeed="25" color="blue"/>
    <vType id="bus" accel="1.2" decel="3.0" maxSpeed="15" color="red"/>
    <vType id="truck" accel="1.0" decel="2.5" maxSpeed="12" color="green"/>

    <!-- 🔹 Flows -->
    <flow id="f_0" type="car" begin="0" end="3600" perHour="1200"
          from="-E4" to="Node1_2_WB" via="-E3 Node2_3_WB"/>

    <flow id="f_1" type="bus" begin="0" end="3600" perHour="300"
          from="Node2_7_SB" to="-E5" via="E4"/>

    <flow id="f_2" type="truck" begin="0" end="3600" perHour="300"
          from="Node1_2_EB" to="E4" via="Node2_3_EB E2"/>

</routes>